
     RDKit          3D

 29 28  0  0  0  0  0  0  0  0999 V2000
   -2.7365    1.1702    0.8819 C   0  0  0  0  0  0  0  0  0  0  0  0
   -2.2474   -0.0468    0.1468 C   0  0  0  0  0  0  0  0  0  0  0  0
   -1.1298   -0.7356    0.4490 C   0  0  0  0  0  0  0  0  0  0  0  0
   -0.1687   -0.4790    1.5796 C   0  0  0  0  0  0  0  0  0  0  0  0
    1.0732    0.3150    1.1499 C   0  0  0  0  0  0  0  0  0  0  0  0
    1.9691   -0.4078    0.1617 C   0  0  0  0  0  0  0  0  0  0  0  0
    2.0254   -0.1399   -1.1590 C   0  0  0  0  0  0  0  0  0  0  0  0
    1.2188    0.8508   -1.9356 C   0  0  0  0  0  0  0  0  0  0  0  0
    2.1072    1.8233   -2.4641 O   0  0  0  0  0  0  0  0  0  0  0  0
    2.8562   -1.4699    0.7603 C   0  0  0  0  0  0  0  0  0  0  0  0
   -3.1134   -0.4604   -1.0144 C   0  0  0  0  0  0  0  0  0  0  0  0
   -3.6879    0.9533    1.3783 H   0  0  0  0  0  0  0  0  0  0  0  0
   -2.0357    1.5291    1.6393 H   0  0  0  0  0  0  0  0  0  0  0  0
   -2.8945    1.9954    0.1791 H   0  0  0  0  0  0  0  0  0  0  0  0
   -0.8640   -1.5926   -0.1707 H   0  0  0  0  0  0  0  0  0  0  0  0
    0.1269   -1.4460    2.0050 H   0  0  0  0  0  0  0  0  0  0  0  0
   -0.6643    0.0533    2.3986 H   0  0  0  0  0  0  0  0  0  0  0  0
    0.7652    1.2930    0.7635 H   0  0  0  0  0  0  0  0  0  0  0  0
    1.6664    0.5447    2.0451 H   0  0  0  0  0  0  0  0  0  0  0  0
    2.7173   -0.7104   -1.7781 H   0  0  0  0  0  0  0  0  0  0  0  0
    0.7203    0.3501   -2.7712 H   0  0  0  0  0  0  0  0  0  0  0  0
    0.4523    1.3620   -1.3503 H   0  0  0  0  0  0  0  0  0  0  0  0
    2.6083    2.1753   -1.7086 H   0  0  0  0  0  0  0  0  0  0  0  0
    3.5113   -1.9321    0.0140 H   0  0  0  0  0  0  0  0  0  0  0  0
    2.2540   -2.2665    1.2077 H   0  0  0  0  0  0  0  0  0  0  0  0
    3.4956   -1.0374    1.5367 H   0  0  0  0  0  0  0  0  0  0  0  0
   -2.7299   -1.3514   -1.5227 H   0  0  0  0  0  0  0  0  0  0  0  0
   -3.1677    0.3458   -1.7532 H   0  0  0  0  0  0  0  0  0  0  0  0
   -4.1275   -0.6858   -0.6687 H   0  0  0  0  0  0  0  0  0  0  0  0
  1  2  1  0
  2  3  2  3
  3  4  1  0
  4  5  1  0
  5  6  1  0
  6  7  2  0
  7  8  1  0
  8  9  1  0
  6 10  1  0
  2 11  1  0
  1 12  1  0
  1 13  1  0
  1 14  1  0
  3 15  1  0
  4 16  1  0
  4 17  1  0
  5 18  1  0
  5 19  1  0
  7 20  1  0
  8 21  1  0
  8 22  1  0
  9 23  1  0
 10 24  1  0
 10 25  1  0
 10 26  1  0
 11 27  1  0
 11 28  1  0
 11 29  1  0
M  END
$$$$
