
     RDKit          3D

 33 34  0  0  0  0  0  0  0  0999 V2000
   -4.4041   -1.2211    0.0671 C   0  0  0  0  0  0  0  0  0  0  0  0
   -3.4380   -0.1804    0.6370 C   0  0  1  0  0  0  0  0  0  0  0  0
   -2.1085   -0.1851   -0.0966 C   0  0  0  0  0  0  0  0  0  0  0  0
   -2.0183    0.1671   -1.4526 C   0  0  0  0  0  0  0  0  0  0  0  0
   -0.7906    0.1399   -2.1174 C   0  0  0  0  0  0  0  0  0  0  0  0
    0.3680   -0.2311   -1.4355 C   0  0  0  0  0  0  0  0  0  0  0  0
    0.2994   -0.5632   -0.0788 C   0  0  0  0  0  0  0  0  0  0  0  0
   -0.9366   -0.5557    0.5814 C   0  0  0  0  0  0  0  0  0  0  0  0
    1.5045   -0.9772    0.6834 C   0  0  0  0  0  0  0  0  0  0  0  0
    1.3982   -1.8472    1.5443 O   0  0  0  0  0  0  0  0  0  0  0  0
    2.8332   -0.3649    0.4290 C   0  0  0  0  0  0  0  0  0  0  0  0
    2.9679    0.9876    0.0920 C   0  0  0  0  0  0  0  0  0  0  0  0
    4.2372    1.5270   -0.1272 C   0  0  0  0  0  0  0  0  0  0  0  0
    5.3706    0.7235    0.0012 C   0  0  0  0  0  0  0  0  0  0  0  0
    5.2405   -0.6186    0.3577 C   0  0  0  0  0  0  0  0  0  0  0  0
    3.9742   -1.1620    0.5780 C   0  0  0  0  0  0  0  0  0  0  0  0
   -4.0804    1.1946    0.6319 C   0  0  0  0  0  0  0  0  0  0  0  0
   -4.8899    1.6258   -0.1740 O   0  0  0  0  0  0  0  0  0  0  0  0
   -3.6471    1.9778    1.6421 O   0  0  0  0  0  0  0  0  0  0  0  0
   -5.3405   -1.2301    0.6363 H   0  0  0  0  0  0  0  0  0  0  0  0
   -4.6619   -1.0156   -0.9779 H   0  0  0  0  0  0  0  0  0  0  0  0
   -3.9695   -2.2258    0.1128 H   0  0  0  0  0  0  0  0  0  0  0  0
   -3.2785   -0.4493    1.6902 H   0  0  0  0  0  0  0  0  0  0  0  0
   -2.9093    0.4591   -2.0077 H   0  0  0  0  0  0  0  0  0  0  0  0
   -0.7413    0.4000   -3.1722 H   0  0  0  0  0  0  0  0  0  0  0  0
    1.3090   -0.2733   -1.9778 H   0  0  0  0  0  0  0  0  0  0  0  0
   -0.9774   -0.8420    1.6318 H   0  0  0  0  0  0  0  0  0  0  0  0
    2.0993    1.6364    0.0148 H   0  0  0  0  0  0  0  0  0  0  0  0
    4.3442    2.5771   -0.3885 H   0  0  0  0  0  0  0  0  0  0  0  0
    6.3583    1.1467   -0.1655 H   0  0  0  0  0  0  0  0  0  0  0  0
    6.1248   -1.2409    0.4711 H   0  0  0  0  0  0  0  0  0  0  0  0
    3.8771   -2.2067    0.8670 H   0  0  0  0  0  0  0  0  0  0  0  0
   -4.1144    2.8278    1.5023 H   0  0  0  0  0  0  0  0  0  0  0  0
  1  2  1  0
  2  3  1  0
  3  4  2  0
  4  5  1  0
  5  6  2  0
  6  7  1  0
  7  8  2  0
  7  9  1  0
  9 10  2  0
  9 11  1  0
 11 12  2  0
 12 13  1  0
 13 14  2  0
 14 15  1  0
 15 16  2  0
  2 17  1  0
 17 18  2  0
 17 19  1  0
  8  3  1  0
 16 11  1  0
  1 20  1  0
  1 21  1  0
  1 22  1  0
  2 23  1  1
  4 24  1  0
  5 25  1  0
  6 26  1  0
  8 27  1  0
 12 28  1  0
 13 29  1  0
 14 30  1  0
 15 31  1  0
 16 32  1  0
 19 33  1  0
M  END
$$$$
