
     RDKit          3D

  9  8  0  0  0  0  0  0  0  0999 V2000
    1.4034    0.1716   -0.2306 C   0  0  0  0  0  0  0  0  0  0  0  0
    0.2671   -0.4751    0.0626 C   0  0  0  0  0  0  0  0  0  0  0  0
   -1.0990    0.1269   -0.0223 C   0  0  0  0  0  0  0  0  0  0  0  0
   -1.8654    0.0937    1.5788 Cl  0  0  0  0  0  0  0  0  0  0  0  0
    2.3635   -0.3291   -0.1463 H   0  0  0  0  0  0  0  0  0  0  0  0
    1.4074    1.2092   -0.5507 H   0  0  0  0  0  0  0  0  0  0  0  0
    0.3215   -1.5143    0.3806 H   0  0  0  0  0  0  0  0  0  0  0  0
   -1.7242   -0.4495   -0.7101 H   0  0  0  0  0  0  0  0  0  0  0  0
   -1.0743    1.1666   -0.3620 H   0  0  0  0  0  0  0  0  0  0  0  0
  1  2  2  0
  2  3  1  0
  3  4  1  0
  1  5  1  0
  1  6  1  0
  2  7  1  0
  3  8  1  0
  3  9  1  0
M  END
$$$$
