
     RDKit          3D

 19 19  0  0  0  0  0  0  0  0999 V2000
    2.8237    0.0080    0.4763 C   0  0  0  0  0  0  0  0  0  0  0  0
    2.0599    0.1892   -0.8239 C   0  0  0  0  0  0  0  0  0  0  0  0
    0.9677   -0.7247   -0.9014 O   0  0  0  0  0  0  0  0  0  0  0  0
   -0.2472   -0.3450   -0.4042 C   0  0  0  0  0  0  0  0  0  0  0  0
   -0.5229    0.8191    0.3131 C   0  0  0  0  0  0  0  0  0  0  0  0
   -1.8212    1.0753    0.7673 C   0  0  0  0  0  0  0  0  0  0  0  0
   -2.8482    0.1691    0.5098 C   0  0  0  0  0  0  0  0  0  0  0  0
   -2.5786   -0.9973   -0.2006 C   0  0  0  0  0  0  0  0  0  0  0  0
   -1.2825   -1.2513   -0.6527 C   0  0  0  0  0  0  0  0  0  0  0  0
    3.1525   -1.0308    0.5855 H   0  0  0  0  0  0  0  0  0  0  0  0
    3.7023    0.6590    0.5022 H   0  0  0  0  0  0  0  0  0  0  0  0
    2.1972    0.2343    1.3442 H   0  0  0  0  0  0  0  0  0  0  0  0
    2.7302   -0.0596   -1.6546 H   0  0  0  0  0  0  0  0  0  0  0  0
    1.7533    1.2280   -0.9886 H   0  0  0  0  0  0  0  0  0  0  0  0
    0.2469    1.5461    0.5461 H   0  0  0  0  0  0  0  0  0  0  0  0
   -2.0290    1.9843    1.3263 H   0  0  0  0  0  0  0  0  0  0  0  0
   -3.8554    0.3708    0.8645 H   0  0  0  0  0  0  0  0  0  0  0  0
   -3.3732   -1.7102   -0.4032 H   0  0  0  0  0  0  0  0  0  0  0  0
   -1.0756   -2.1641   -1.2062 H   0  0  0  0  0  0  0  0  0  0  0  0
  1  2  1  0
  2  3  1  0
  3  4  1  0
  4  5  2  0
  5  6  1  0
  6  7  2  0
  7  8  1  0
  8  9  2  0
  9  4  1  0
  1 10  1  0
  1 11  1  0
  1 12  1  0
  2 13  1  0
  2 14  1  0
  5 15  1  0
  6 16  1  0
  7 17  1  0
  8 18  1  0
  9 19  1  0
M  END
$$$$
