
     RDKit          3D

  7  6  0  0  0  0  0  0  0  0999 V2000
   -0.5678    0.0872    0.0135 C   0  0  0  0  0  0  0  0  0  0  0  0
    0.8485    0.0006    0.3215 N   0  0  0  0  0  0  0  0  0  0  0  0
   -1.1452   -0.5176    0.7182 H   0  0  0  0  0  0  0  0  0  0  0  0
   -0.9082    1.1235    0.0896 H   0  0  0  0  0  0  0  0  0  0  0  0
   -0.7638   -0.2729   -1.0005 H   0  0  0  0  0  0  0  0  0  0  0  0
    1.1594   -0.9644    0.2176 H   0  0  0  0  0  0  0  0  0  0  0  0
    1.3771    0.5436   -0.3600 H   0  0  0  0  0  0  0  0  0  0  0  0
  1  2  1  0
  1  3  1  0
  1  4  1  0
  1  5  1  0
  2  6  1  0
  2  7  1  0
M  END
$$$$
