
     RDKit          3D

 12 11  0  0  0  0  0  0  0  0999 V2000
   -1.3588    0.3765    0.2873 C   0  0  0  0  0  0  0  0  0  0  0  0
   -0.4825   -0.4390   -0.6540 C   0  0  0  0  0  0  0  0  0  0  0  0
    0.9984   -0.4117   -0.3893 C   0  0  0  0  0  0  0  0  0  0  0  0
    1.6398    0.2498    0.5827 C   0  0  0  0  0  0  0  0  0  0  0  0
   -1.0991    1.4397    0.2522 H   0  0  0  0  0  0  0  0  0  0  0  0
   -1.2641    0.0286    1.3213 H   0  0  0  0  0  0  0  0  0  0  0  0
   -2.4104    0.2802   -0.0022 H   0  0  0  0  0  0  0  0  0  0  0  0
   -0.8135   -1.4839   -0.6210 H   0  0  0  0  0  0  0  0  0  0  0  0
   -0.6503   -0.0874   -1.6790 H   0  0  0  0  0  0  0  0  0  0  0  0
    1.5977   -1.0047   -1.0796 H   0  0  0  0  0  0  0  0  0  0  0  0
    1.1220    0.8630    1.3123 H   0  0  0  0  0  0  0  0  0  0  0  0
    2.7208    0.1889    0.6692 H   0  0  0  0  0  0  0  0  0  0  0  0
  1  2  1  0
  2  3  1  0
  3  4  2  0
  1  5  1  0
  1  6  1  0
  1  7  1  0
  2  8  1  0
  2  9  1  0
  3 10  1  0
  4 11  1  0
  4 12  1  0
M  END
$$$$
